%%%%%%%%%%%%%%%%%%%%%%%%%%%%%%%%%%%%%%%%%%%%%%%%%%%%%%%%%%%%%%%%%%%%%%%%%%%%%%%%
%                                                                              %
% SU2 configuration file                                                       %
% Case description: 2D NACA 0012 Airfoil Validation Case (compressible)        %
%                   http://turbmodels.larc.nasa.gov/naca0012_val_sa.html       %
% Author:                                                                      %
% Institution:                                                                 %
% Date:                                                                        %
% File Version 7.5.0 "Blackbird"                                               %
%                                                                              %
%%%%%%%%%%%%%%%%%%%%%%%%%%%%%%%%%%%%%%%%%%%%%%%%%%%%%%%%%%%%%%%%%%%%%%%%%%%%%%%%

% ------------- DIRECT, ADJOINT, AND LINEARIZED PROBLEM DEFINITION ------------%

% Solver type (EULER, NAVIER_STOKES, RANS,
%              INC_EULER, INC_NAVIER_STOKES, INC_RANS,
%              NEMO_EULER, NEMO_NAVIER_STOKES,
%              FEM_EULER, FEM_NAVIER_STOKES, FEM_RANS, FEM_LES,
%              HEAT_EQUATION_FVM, ELASTICITY)
SOLVER= RANS
% Specify turbulence model (NONE, SA, SST)
KIND_TURB_MODEL= SA
% Specify versions/corrections of the SA model (NEGATIVE, EDWARDS, WITHFT2, QCR2000, COMPRESSIBILITY, ROTATION, BCM, EXPERIMENTAL)
SA_OPTIONS= NEGATIVE, EXPERIMENTAL

% Specify turbulence model (NONE, SA, SST)
% KIND_TURB_MODEL= SST
% Specify versions/corrections of the SST model (V2003m, V1994m, VORTICITY, KATO-LAUNDER, UQ, SUSTAINING)
% SST_OPTIONS= V2003m
% Transition model (NONE, LM)
% KIND_TRANS_MODEL= LM

% Mathematical problem (DIRECT, CONTINUOUS_ADJOINT)
MATH_PROBLEM= DIRECT
% Restart solution (NO, YES)
RESTART_SOL= NO

% -------------------- COMPRESSIBLE FREE-STREAM DEFINITION --------------------%
%
% Mach number (non-dimensional, based on the free-stream values)
MACH_NUMBER= 0.8
% Angle of attack (degrees, only for compressible flows)
AOA= 2.0
% Free-stream temperature (288.15 K by default)
FREESTREAM_TEMPERATURE= 273.15
% Free-stream pressure (101325.0 N/m^2 by default, only Euler flows)  
FREESTREAM_PRESSURE= 101325.0
% Reynolds number (non-dimensional, based on the free-stream values) NS, RANS need Reynolds number
REYNOLDS_NUMBER= 6.5E6
% Reynolds length (1 m by default)
REYNOLDS_LENGTH= 1.0

% Init option to choose between Reynolds (default) or thermodynamics quantities
% for initializing the solution (REYNOLDS, TD_CONDITIONS)
INIT_OPTION= TD_CONDITIONS
% Free-stream option to choose between density and temperature (default) for
% initializing the solution (TEMPERATURE_FS, DENSITY_FS)
FREESTREAM_OPTION= TEMPERATURE_FS

% ---------------------- REFERENCE VALUE DEFINITION ---------------------------%
%
% Reference origin for moment computation
REF_ORIGIN_MOMENT_X= 0.00
REF_ORIGIN_MOMENT_Y= 0.00
REF_ORIGIN_MOMENT_Z= 0.00
% Reference length for pitching, rolling, and yawing non-dimensional moment
REF_LENGTH= 1.0
% Reference area for force coefficients (0 implies automatic calculation)
REF_AREA= 1.0
% Compressible flow non-dimensionalization (DIMENSIONAL, FREESTREAM_PRESS_EQ_ONE,
%                              FREESTREAM_VEL_EQ_MACH, FREESTREAM_VEL_EQ_ONE)
REF_DIMENSIONALIZATION= FREESTREAM_VEL_EQ_MACH

% ---- IDEAL GAS, POLYTROPIC, VAN DER WAALS AND PENG ROBINSON CONSTANTS -------%
% Different gas model (STANDARD_AIR, IDEAL_GAS, VW_GAS, PR_GAS)
FLUID_MODEL= STANDARD_AIR
% Ratio of specific heats (1.4 default and the value is hardcoded
%                          for the model STANDARD_AIR)
GAMMA_VALUE= 1.4
% Specific gas constant (287.058 J/kg*K default and this value is hardcoded 
%                        for the model STANDARD_AIR)
GAS_CONSTANT= 287.058

% --------------------------- VISCOSITY MODEL ---------------------------------%
%
% Viscosity model (SUTHERLAND, CONSTANT_VISCOSITY).
VISCOSITY_MODEL= SUTHERLAND
% Sutherland Viscosity Ref (1.716E-5 default value for AIR SI)
MU_REF= 1.716E-5
% Sutherland Temperature Ref (273.15 K default value for AIR SI)
MU_T_REF= 273.15
% Sutherland constant (110.4 default value for AIR SI)
SUTHERLAND_CONSTANT= 110.4

% --------------------------- THERMAL CONDUCTIVITY MODEL ----------------------%
%
% Conductivity model (CONSTANT_CONDUCTIVITY, CONSTANT_PRANDTL).
CONDUCTIVITY_MODEL= CONSTANT_PRANDTL
% Laminar Prandtl number (0.72 (air), only for CONSTANT_PRANDTL)
PRANDTL_LAM= 0.72
% Turbulent Prandtl number (0.9 (air), only for CONSTANT_PRANDTL)
PRANDTL_TURB= 0.90

% -------------------- BOUNDARY CONDITION DEFINITION --------------------------%
%
% Navier-Stokes wall boundary marker(s) (NONE = no marker)
MARKER_HEATFLUX= ( AIRFOIL_UP, 0.0, AIRFOIL_LOW, 0.0 )
% Farfield boundary marker(s) (NONE = no marker)
MARKER_FAR= ( FARFIELD )
% Marker(s) of the surface to be plotted or designed
MARKER_PLOTTING= ( AIRFOIL_UP, AIRFOIL_LOW )
% Marker(s) of the surface where the functional (Cd, Cl, etc.) will be evaluated
MARKER_MONITORING= ( AIRFOIL_UP, AIRFOIL_LOW )
% Internal boundary marker(s) e.g. no boundary condition (NONE = no marker)
MARKER_INTERNAL= ( INNER )

% ------------- COMMON PARAMETERS DEFINING THE NUMERICAL METHOD ---------------%
%
% Courant-Friedrichs-Lewy condition of the finest grid
CFL_NUMBER= 5
% Adaptive CFL number (NO, YES)
CFL_ADAPT= YES
% Parameters of the adaptive CFL number (factor down, factor up, CFL min value,
%                                        CFL max value )
CFL_ADAPT_PARAM= ( 0.9, 1.1, 0.5, 1000, 1e-4 )
% Number of total iterations
ITER= 99999

% ------------------------ LINEAR SOLVER DEFINITION ---------------------------%
% Linear solver or smoother for implicit formulations (BCGSTAB, MULTIGRID, FGMRES, SMOOTHER_JACOBI, 
%                                                      SMOOTHER_ILU, SMOOTHER_LUSGS, 
%                                                      SMOOTHER_LINELET)
LINEAR_SOLVER= FGMRES
% Preconditioner of the Krylov linear solver (ILU, LU_SGS, LINELET, JACOBI)
LINEAR_SOLVER_PREC= ILU
% Minimum error of the linear solver for implicit formulations
LINEAR_SOLVER_ERROR= 1E-4
% Max number of iterations of the linear solver for the implicit formulation
LINEAR_SOLVER_ITER= 10

% -------------------- FLOW NUMERICAL METHOD DEFINITION -----------------------%
% Convective numerical method JST, JST_KE, JST_MAT, LAX-FRIEDRICH, CUSP, ROE, AUSM,
%                              AUSMPLUSUP, AUSMPLUSUP2, AUSMPWPLUS, HLLC, TURKEL_PREC,
%                              SW, MSW, FDS, SLAU, SLAU2, L2ROE, LMROE
CONV_NUM_METHOD_FLOW= AUSM
% Time discretization (RUNGE-KUTTA_EXPLICIT, EULER_IMPLICIT, EULER_EXPLICIT)
TIME_DISCRE_FLOW= EULER_IMPLICIT

% -------------------- TURBULENT NUMERICAL METHOD DEFINITION ------------------%
% Convective numerical method (SCALAR_UPWIND)
CONV_NUM_METHOD_TURB= SCALAR_UPWIND
% Time discretization (EULER_IMPLICIT)
TIME_DISCRE_TURB= EULER_IMPLICIT

% ----------- SLOPE LIMITER AND DISSIPATION SENSOR DEFINITION -----------------%
% Monotonic Upwind Scheme for Conservation Laws (TVD) in the flow equations.
%           Required for 2nd order upwind schemes (NO, YES)
MUSCL_FLOW= YES
% Slope limiter (NONE, VENKATAKRISHNAN, VENKATAKRISHNAN_WANG,
%                BARTH_JESPERSEN, VAN_ALBADA_EDGE)
SLOPE_LIMITER_FLOW= VENKATAKRISHNAN
% Monotonic Upwind Scheme for Conservation Laws (TVD) in the turbulence equations.
%           Required for 2nd order upwind schemes (NO, YES)
MUSCL_TURB= YES
% Slope limiter (NONE, VENKATAKRISHNAN, VENKATAKRISHNAN_WANG,
%                BARTH_JESPERSEN, VAN_ALBADA_EDGE)
SLOPE_LIMITER_TURB= VENKATAKRISHNAN
% Coefficient for the Venkat''s limiter (upwind scheme). A larger values decrease
%             the extent of limiting, values approaching zero cause
%             lower-order approximation to the solution (0.05 by default)
VENKAT_LIMITER_COEFF= 0.01
% Freeze the value of the limiter after a number of iterations
% LIMITER_ITER= 300

% --------------------------- CONVERGENCE PARAMETERS --------------------------%
% Convergence field
CONV_FIELD= ( LIFT, DRAG )
% Start convergence criteria at iteration number
CONV_STARTITER= 5
% Number of elements to apply the criteria
CONV_CAUCHY_ELEMS= 5
% Epsilon to control the series convergence
CONV_CAUCHY_EPS= 5E-6

% ------------------------- INPUT/OUTPUT INFORMATION --------------------------%
% Screen output 
SCREEN_OUTPUT= ( INNER_ITER, AVG_CFL, RMS_DENSITY, RMS_ENERGY, RMS_TKE, LINSOL, DRAG, LIFT)
% History output groups (use 'SU2_CFD -d <config_file>' to view list of available fields)
HISTORY_OUTPUT= ( ITER, RMS_RES, AERO_COEFF )
% Writing solution file frequency
OUTPUT_WRT_FREQ= 100

% Mesh input file Mesh input file format (SU2, CGNS, NETCDF_ASCII)
MESH_FILENAME= NACA0012.cgns
MESH_FORMAT= CGNS

% Output file restart, Restart flow input file
RESTART_FILENAME= restart_flow.dat
SOLUTION_FILENAME= restart_flow.dat

% Output tabular file format (TECPLOT, CSV)
% TABULAR_FORMAT= CSV

% Output file convergence history (w/o extension) Output file surface flow coefficient (w/o extension) Output file flow (w/o extension) variables
CONV_FILENAME= history
SURFACE_FILENAME= surface_flow
VOLUME_FILENAME= volume_flow

% Files to output
% Possible formats : (TECPLOT_ASCII, TECPLOT, SURFACE_TECPLOT_ASCII,
%  SURFACE_TECPLOT, CSV, SURFACE_CSV, PARAVIEW_ASCII, PARAVIEW_LEGACY, SURFACE_PARAVIEW_ASCII,
%  SURFACE_PARAVIEW_LEGACY, PARAVIEW, SURFACE_PARAVIEW, RESTART_ASCII, RESTART, CGNS, SURFACE_CGNS, STL_ASCII, STL_BINARY)
% default : (RESTART, PARAVIEW, SURFACE_PARAVIEW)
OUTPUT_FILES = (RESTART, TECPLOT, SURFACE_CSV)
