SOLVER=RANS
KIND_TURB_MODEL=SST
SST_OPTIONS=V2003m
KIND_TRANS_MODEL=LM
MATH_PROBLEM=DIRECT
RESTART_SOL=NO
MACH_NUMBER=0.8
AOA=2.5
FREESTREAM_TEMPERATURE=273.15
FREESTREAM_PRESSURE=101325
REYNOLDS_NUMBER=6500000
REYNOLDS_LENGTH=1
INIT_OPTION=TD_CONDITIONS
FREESTREAM_OPTION=TEMPERATURE_FS
REF_ORIGIN_MOMENT_X=0
REF_ORIGIN_MOMENT_Y=0
REF_ORIGIN_MOMENT_Z=0
REF_LENGTH=1
REF_AREA=1
REF_DIMENSIONALIZATION=DIMENSIONAL
FLUID_MODEL=STANDARD_AIR
GAMMA_VALUE=1.4
GAS_CONSTANT=287.058
VISCOSITY_MODEL=SUTHERLAND
MU_REF=1.716e-05
MU_T_REF=273.15
SUTHERLAND_CONSTANT=110.4
CONDUCTIVITY_MODEL=CONSTANT_PRANDTL
PRANDTL_LAM=0.72
PRANDTL_TURB=0.9
MARKER_HEATFLUX=(AIRFOIL_UP,0,AIRFOIL_LOW,0)
MARKER_FAR=(FARFIELD)
MARKER_PLOTTING=(AIRFOIL_UP,AIRFOIL_LOW)
MARKER_MONITORING=(AIRFOIL_UP,AIRFOIL_LOW)
MARKER_INTERNAL=(INNER)
MGLEVEL=0
MGCYCLE=W_CYCLE
MG_PRE_SMOOTH=(1,2,3,3)
MG_POST_SMOOTH=(0,0,0,0)
MG_CORRECTION_SMOOTH=(0,0,0,0)
MG_DAMP_RESTRICTION=1
MG_DAMP_PROLONGATION=1
CFL_NUMBER=10
CFL_ADAPT=YES
CFL_ADAPT_PARAM=(0.5,1.1,0.01,1000,1e-06)
LINEAR_SOLVER=FGMRES
LINEAR_SOLVER_PREC=ILU
LINEAR_SOLVER_ERROR=1e-06
LINEAR_SOLVER_ITER=10
CONV_NUM_METHOD_FLOW=AUSM
MUSCL_FLOW=YES
SLOPE_LIMITER_FLOW=VENKATAKRISHNAN
TIME_DISCRE_FLOW=EULER_IMPLICIT
CONV_NUM_METHOD_TURB=SCALAR_UPWIND
MUSCL_TURB=YES
SLOPE_LIMITER_TURB=VENKATAKRISHNAN
TIME_DISCRE_TURB=EULER_IMPLICIT
CONV_FIELD=(LIFT,DRAG)
CONV_STARTITER=10
CONV_CAUCHY_ELEMS=100
CONV_CAUCHY_EPS=1e-06
ITER=99999
SCREEN_OUTPUT=(INNER_ITER,AVG_CFL,RMS_DENSITY,RMS_ENERGY,RMS_TKE,LINSOL,DRAG,LIFT)
HISTORY_OUTPUT=(INNER_ITER,RMS_RES,AERO_COEFF)
OUTPUT_WRT_FREQ=100
MESH_FILENAME=airfoil_deform.su2
MESH_FORMAT=SU2
RESTART_FILENAME=restart_flow.dat
SOLUTION_FILENAME=restart_flow.dat
CONV_FILENAME=history
SURFACE_FILENAME=surface_flow
VOLUME_FILENAME=volume_flow
OUTPUT_FILES=(RESTART,TECPLOT_ASCII,SURFACE_CSV)
SIDESLIP_ANGLE=0
NUMBER_PART=128
