MARKER_EULER=(AIRFOIL_UP,AIRFOIL_LOW)
MARKER_FAR=(FARFIELD)
MARKER_PLOTTING=(AIRFOIL_UP,AIRFOIL_LOW)
LINEAR_SOLVER=FGMRES
LINEAR_SOLVER_PREC=LU_SGS
LINEAR_SOLVER_ERROR=0.0001
LINEAR_SOLVER_ITER=2
CONV_NUM_METHOD_FLOW=JST
SLOPE_LIMITER_FLOW=VENKATAKRISHNAN
JST_SENSOR_COEFF=(0.5,0.02)
TIME_DISCRE_FLOW=EULER_IMPLICIT
DEFORM_LINEAR_SOLVER=FGMRES
DEFORM_LINEAR_SOLVER_ITER=500
DEFORM_NONLINEAR_ITER=1
DEFORM_CONSOLE_OUTPUT=YES
DEFORM_LINEAR_SOLVER_ERROR=1e-14
DEFORM_COEFF=0
DEFORM_STIFFNESS_TYPE=WALL_DISTANCE
DEFORM_LIMIT=1000000
DEFORM_MESH=YES
MARKER_DEFORM_MESH=(AIRFOIL_UP,AIRFOIL_LOW)
DV_KIND=SURFACE_FILE
DV_PARAM=1
DV_MARKER=(AIRFOIL_UP,AIRFOIL_LOW)
DV_FILENAME=airfoil_deform.dat
SCREEN_OUTPUT=(INNER_ITER,RMS_DENSITY,RMS_ENERGY,LIFT,DRAG)
MESH_FILENAME=NACA0012.cgns
MESH_FORMAT=CGNS
MESH_OUT_FILENAME=airfoil_deform.su2
OUTPUT_FILES=SURFACE_CSV
MACH_NUMBER=0.8
AOA=1.25
SIDESLIP_ANGLE=0
FREESTREAM_TEMPERATURE=288.15
FREESTREAM_PRESSURE=101325
NUMBER_PART=128
